#
# CIF written by cell_write_cif: Keith Refson, Apr 2010
#
data_CONGRS_geomopt
_audit_creation_date '14:46:18 (GMT+1.0) 24th October 2016'
_audit_creation_method 'Generated by CASTEP 16.100'
 
_symmetry_Int_Tables_number         205
_symmetry_space_group_name_Hall    '-P 2ac 2ab 3'
loop_
_symmetry_equiv_pos_as_xyz
 x,y,z
 -x,-y,-z
 z,x,y
 y,z,x
 -y,-z,-x
 -z,-x,-y
 x+1/2,-y+1/2,-z
 -x,y+1/2,-z+1/2
 -x+1/2,y+1/2,z
 x,-y+1/2,z+1/2
 -x+1/2,-y,z+1/2
 x+1/2,y,-z+1/2
 -z,x+1/2,-y+1/2
 -y+1/2,-z,x+1/2
 -z+1/2,-x,y+1/2
 -y+1/2,z+1/2,x
 -z+1/2,x+1/2,y
 y,-z+1/2,x+1/2
 y+1/2,z,-x+1/2
 -y,z+1/2,-x+1/2
 y+1/2,-z+1/2,-x
 z+1/2,x,-y+1/2
 z+1/2,-x+1/2,-y
 z,-x+1/2,y+1/2
 
_cell_length_a           10.109000000000002
_cell_length_b           10.109000000000002
_cell_length_c           10.109000000000002
_cell_angle_alpha        90.000000000000000
_cell_angle_beta         90.000000000000000
_cell_angle_gamma        90.000000000000000
 
loop_
_atom_site_label
_atom_site_fract_x
_atom_site_fract_y
_atom_site_fract_z
_atom_site_U_iso_or_equiv
_atom_site_occupancy
H1     0.196132901424956  0.196132901424956  0.196132901424956 0.0100 1.0000
H9     0.283734926087670  0.107599284693967  0.980873810295882 0.0100 1.0000
H33    0.285191697443440  0.983325060185686  0.103993127911232 0.0100 1.0000
H57    0.194165364771899  0.895428566819056  0.892542629545836 0.0100 1.0000
C-1     0.133300000000000  0.133300000000000  0.133300000000000 0.0100 1.0000 # modified to have a weird label
C_9     0.219300000000000  0.045600000000000  0.043400000000000 0.0100 1.0000 # modified to have a weird label
C33    0.131200000000000  0.957900000000000  0.956200000000000 0.0100 1.0000
